Version 4
SHEET 1 1496 680
WIRE 80 16 80 -48
WIRE -96 32 -96 -64
WIRE 256 64 256 16
WIRE 80 144 80 96
WIRE -160 176 -192 176
WIRE -96 176 -96 112
WIRE -96 176 -160 176
WIRE 256 176 256 144
WIRE 384 176 256 176
WIRE 560 192 560 128
WIRE 256 208 256 176
WIRE 528 208 400 208
WIRE 656 224 592 224
WIRE 688 224 656 224
WIRE -416 240 -480 240
WIRE -192 240 -192 176
WIRE -192 240 -224 240
WIRE -96 240 -96 176
WIRE 384 240 384 176
WIRE 528 240 384 240
WIRE 560 288 560 256
WIRE 256 304 256 288
WIRE -480 320 -480 240
WIRE -480 320 -640 320
WIRE -416 336 -448 336
WIRE -192 336 -224 336
WIRE -640 352 -640 320
WIRE -96 352 -96 304
WIRE 48 352 -96 352
WIRE 400 352 400 208
WIRE 400 352 48 352
WIRE -448 384 -448 336
WIRE 48 384 48 352
WIRE -192 432 -192 336
WIRE -640 480 -640 432
WIRE 48 496 48 464
WIRE 48 512 48 496
FLAG -192 432 0
FLAG -640 480 0
FLAG 560 288 0
FLAG -448 384 0
FLAG 80 144 0
FLAG 80 -48 5V
FLAG 560 128 5V
FLAG -160 176 IN
FLAG 656 224 OUT
FLAG 256 304 0
FLAG 256 16 5V
FLAG -96 -64 5V
FLAG 48 496 0
SYMBOL cap -112 240 R0
SYMATTR InstName C1
SYMATTR Value 1µ
SYMBOL res -112 16 R0
SYMATTR InstName R3
SYMATTR Value 10K
SYMBOL voltage -640 336 R0
WINDOW 123 0 0 Left 2
WINDOW 39 0 0 Left 2
SYMATTR InstName V2
SYMATTR Value PULSE(0 2 2 1n 1n 4.9999 5)
SYMBOL res 784 208 R90
WINDOW 0 0 56 VBottom 2
WINDOW 3 32 56 VTop 2
SYMATTR InstName R9
SYMATTR Value 10K
SYMBOL Optos\\4N25 -320 304 R0
SYMATTR InstName U1
SYMBOL Comparators\\LT1720 560 160 R0
SYMATTR InstName U4
SYMBOL voltage 80 0 R0
WINDOW 123 0 0 Left 2
WINDOW 39 0 0 Left 2
SYMATTR InstName V3
SYMATTR Value 5
SYMBOL res 240 48 R0
SYMATTR InstName R1
SYMATTR Value 100k
SYMBOL res 240 192 R0
SYMATTR InstName R2
SYMATTR Value 5K
SYMBOL res 32 368 R0
SYMATTR InstName R4
SYMATTR Value 100k
TEXT -672 504 Left 2 !.tran 30s startup
