Version 4
SHEET 1 1496 680
WIRE 192 -160 192 -224
WIRE 192 -32 192 -80
WIRE -96 32 -96 -64
WIRE 768 64 768 16
WIRE -160 176 -192 176
WIRE -96 176 -96 112
WIRE -96 176 -160 176
WIRE 768 176 768 144
WIRE 896 176 768 176
WIRE 1072 192 1072 128
WIRE 768 208 768 176
WIRE 1040 208 912 208
WIRE 1168 224 1104 224
WIRE 1200 224 1168 224
WIRE -416 240 -480 240
WIRE -192 240 -192 176
WIRE -192 240 -224 240
WIRE -96 240 -96 176
WIRE 896 240 896 176
WIRE 1040 240 896 240
WIRE 1072 288 1072 256
WIRE 768 304 768 288
WIRE -480 320 -480 240
WIRE -480 320 -640 320
WIRE -416 336 -448 336
WIRE -192 336 -224 336
WIRE -640 352 -640 320
WIRE -96 352 -96 304
WIRE 560 352 -96 352
WIRE 912 352 912 208
WIRE 912 352 560 352
WIRE -448 384 -448 336
WIRE 560 384 560 352
WIRE -192 432 -192 336
WIRE -640 480 -640 432
WIRE 560 496 560 464
WIRE 560 512 560 496
FLAG -192 432 0
FLAG -640 480 0
FLAG 1072 288 0
FLAG -448 384 0
FLAG 192 -32 0
FLAG 192 -224 5V
FLAG 1072 128 5V
FLAG -160 176 IN
FLAG 1168 224 OUT
FLAG 768 304 0
FLAG 768 16 5V
FLAG -96 -64 5V
FLAG 560 496 0
SYMBOL cap -112 240 R0
SYMATTR InstName C1
SYMATTR Value 1µ
SYMBOL res -112 16 R0
SYMATTR InstName R3
SYMATTR Value 10K
SYMBOL voltage -640 336 R0
WINDOW 123 0 0 Left 2
WINDOW 39 0 0 Left 2
SYMATTR InstName V2
SYMATTR Value PULSE(0 2 2 1n 1n 4.9999 5)
SYMBOL res 1296 208 R90
WINDOW 0 0 56 VBottom 2
WINDOW 3 32 56 VTop 2
SYMATTR InstName R9
SYMATTR Value 10K
SYMBOL Optos\\4N25 -320 304 R0
SYMATTR InstName U1
SYMBOL Comparators\\LT1720 1072 160 R0
SYMATTR InstName U4
SYMBOL voltage 192 -176 R0
WINDOW 123 0 0 Left 2
WINDOW 39 0 0 Left 2
SYMATTR InstName V3
SYMATTR Value 5
SYMBOL res 752 48 R0
SYMATTR InstName R1
SYMATTR Value 100k
SYMBOL res 752 192 R0
SYMATTR InstName R2
SYMATTR Value 5K
SYMBOL res 544 368 R0
SYMATTR InstName R4
SYMATTR Value 100k
TEXT -674 504 Left 2 !.tran 30s startup
